64
Ni(CO)3[ImNAd2] -2853.71160459
Ni 1.60688400 0.12063900 0.00000000
C 2.53184200 -0.66421800 1.33366400
C 2.53184200 -0.66421800 -1.33366400
C 1.91259900 1.89355300 0.00000000
O 3.30520200 -1.13251600 2.03517700
O 3.30520200 -1.13251600 -2.03517700
O 2.12525800 3.01553600 0.00000000
C -0.46615000 0.02820700 0.00000000
C -0.97694400 -0.00060300 2.53328800
C -2.25320800 0.14709300 3.38405500
H -2.72563200 1.11616600 3.19108100
C -2.62784300 0.20914800 0.67077700
C -2.62784300 0.20914800 -0.67077700
C -2.25320800 0.14709300 -3.38405500
H -2.97214000 -0.63728300 -3.12659300
C -0.97694400 -0.00060300 -2.53328800
C -0.38141900 -1.38162500 2.83972300
H -1.11723300 -2.14868700 2.57261700
H 0.49407100 -1.55086700 2.21476000
C -0.01544000 1.11976000 2.94918200
H -0.48720400 2.08739300 2.74453300
H 0.88911300 1.06839700 2.34547300
C -0.38141900 -1.38162500 -2.83972300
H -1.11723300 -2.14868700 -2.57261700
H 0.49407100 -1.55086700 -2.21476000
C -0.01544000 1.11976000 -2.94918200
H 0.88911300 1.06839700 -2.34547300
H -0.48720400 2.08739300 -2.74453300
N -1.31572000 0.09574600 1.08006500
N -1.31572000 0.09574600 -1.08006500
H -2.72563200 1.11616600 -3.19108100
H -3.46048800 0.28628600 -1.34078800
H -3.46048800 0.28628600 1.34078800
H -2.97214000 -0.63728300 3.12659300
C -1.92196600 0.03554700 -4.87798900
H -2.85346700 0.14359000 -5.44289600
C -0.02533000 -1.48358000 -4.32828800
H 0.42952400 -2.46114200 -4.51512700
C 0.32952400 0.99594900 -4.43833800
H 1.03934700 1.78685500 -4.69933800
C -1.92196600 0.03554700 4.87798900
H -2.85346700 0.14359000 5.44289600
C -0.02533000 -1.48358000 4.32828800
H 0.42952400 -2.46114200 4.51512700
C -1.29907500 -1.33377700 -5.16316700
C 0.96160700 -0.37400000 -4.71039100
C -0.94356100 1.14344400 -5.27280500
H -1.06847300 -1.42593000 -6.22986900
H -2.00964700 -2.13121800 -4.91819500
H 1.89210300 -0.48248200 -4.14886300
H 1.21935100 -0.45923800 -5.77183500
H -1.39642600 2.12684900 -5.10402900
H -0.71027000 1.07600500 -6.34081900
C 0.32952400 0.99594900 4.43833800
H 1.03934700 1.78685500 4.69933800
C -0.94356100 1.14344400 5.27280500
H -1.39642600 2.12684900 5.10402900
H -0.71027000 1.07600500 6.34081900
C -1.29907500 -1.33377700 5.16316700
H -1.06847300 -1.42593000 6.22986900
H -2.00964700 -2.13121800 4.91819500
C 0.96160700 -0.37400000 4.71039100
H 1.89210300 -0.48248200 4.14886300
H 1.21935100 -0.45923800 5.77183500
