16
Ni(CO)3[ImNH2] -2074.65196057
Ni 3.37781400 3.38988000 10.74900400
C 2.51167600 3.24401700 12.32031100
C 2.98452100 2.00851800 9.66998900
C 5.15516800 3.51959700 10.98765000
O 1.95907600 3.15200700 13.31493900
O 2.73667800 1.12961200 8.98279500
O 6.28504200 3.60149700 11.13335600
N 3.08052500 6.32154500 10.18626500
N 1.91036000 5.19666800 8.84324700
C 2.76347400 5.04073300 9.88284400
C 2.45164500 7.24194300 9.37029700
C 1.70158200 6.52084000 8.50940400
H 2.58697200 8.30463700 9.46688000
H 1.05468800 6.83146100 7.70816000
H 1.48646100 4.41047000 8.38265600
H 3.71081600 6.54717600 10.93579000
