22
Ni(CO)3[ImNMe2] -2153.26867717
Ni 3.35779300 3.38763600 10.73268400
C 2.49369300 3.23819800 12.30148200
C 3.03437500 1.94393400 9.71281700
C 5.13919000 3.50853600 10.94894700
O 1.93647700 3.13987700 13.29368400
O 2.86974600 0.99114400 9.10301400
O 6.27357700 3.56017100 11.07485600
N 3.07133100 6.33499100 10.20351000
N 1.87436600 5.22388800 8.83196100
C 2.72712900 5.06111000 9.87752100
C 3.98693200 6.69252900 11.26739000
C 2.46497500 7.25832400 9.37731600
C 1.70669000 6.55472300 8.50967400
C 1.22371100 4.13791000 8.12693000
H 3.98021100 5.90102000 12.01234600
H 2.61389900 8.31902800 9.48183500
H 1.06445500 6.88275700 7.71086200
H 0.81083300 3.43164900 8.84399200
H 5.00182300 6.81240500 10.88323300
H 3.66165300 7.62596400 11.72680700
H 0.41646400 4.54612000 7.52020900
H 1.93087300 3.61730600 7.48032000
