34
Ni(CO)3[PerNMe2] -2460.54329415
Ni 1.05930300 10.99467700 -0.43470200
C 0.38311200 11.54594600 1.14687900
C 2.81930700 11.35003400 -0.23782000
C 0.35042900 11.90402300 -1.81145800
O 0.03033200 11.96239000 2.14942200
O 3.90472800 11.65107500 -0.05285900
O -0.09831000 12.48711800 -2.68429600
C 2.68301900 4.62979900 -1.56330600
C 2.72457300 6.02874900 -1.69917500
C 1.70126500 6.79818400 -1.18013400
C 0.62648500 6.17501800 -0.50933900
C 0.58809200 4.76146400 -0.37498000
C 1.64756600 4.00270400 -0.92270400
C -0.41414700 6.96961100 0.01904100
C 0.75172700 9.00333900 -0.69274300
C -1.46922100 6.36859300 0.67795800
C -1.50296900 4.96900400 0.80932700
C -0.50844200 4.17741700 0.29933900
H -0.54753000 3.10011600 0.40734600
H -2.33900000 4.51756300 1.33042200
H 3.49601700 4.04473200 -1.97684800
H 3.56742900 6.48027600 -2.20005700
H 1.62806900 2.92381300 -0.82581000
H -2.26839200 6.95317000 1.10779200
N 1.68145500 8.20151800 -1.27107300
N -0.31037400 8.36294000 -0.14172600
C 2.73408400 8.80405100 -2.07418500
H 2.48773300 9.84709800 -2.23280100
C -1.45498300 9.14365800 0.30143300
H -1.33836200 10.15738000 -0.06267400
H -2.36510100 8.71297300 -0.12033800
H -1.53249700 9.15211900 1.39155500
H 3.70528600 8.72775400 -1.57880800
H 2.78169200 8.29551000 -3.03897500
