46
Ni(CO)3[PerNPri2] -2617.78963337
Ni 1.08175000 10.99830200 -0.46688200
C 0.97445700 11.39729200 1.28947100
C 2.67752100 11.74644600 -0.88387200
C -0.11673300 11.82370600 -1.52562800
O 3.59994000 12.39223200 -1.07639800
O -0.83509700 12.37462300 -2.22111200
O 0.99029700 11.70912400 2.38737500
C 2.79081900 4.54439900 -1.21791700
C 2.85900900 5.93995300 -1.35499700
C 1.77518500 6.73072600 -1.02515200
C 0.61297200 6.12161100 -0.49887700
C 0.53550400 4.70380900 -0.39323100
C 1.65593800 3.92888800 -0.76516700
C -0.47258800 6.92849600 -0.08369500
C 0.80492100 8.93943700 -0.64491100
C -1.63104100 6.31578800 0.35488200
C -1.71619900 4.91594600 0.42600200
C -0.65997900 4.11924900 0.07895100
H -0.72420500 3.04068500 0.15850200
H -2.63926100 4.47129000 0.77921800
H 3.65799800 3.95381000 -1.48945400
H 3.77036200 6.37279000 -1.72761000
H 1.60136000 2.85007100 -0.68205000
H -2.48474100 6.89055300 0.66493000
N 1.75135400 8.13042500 -1.19186400
N -0.28564900 8.32834800 -0.10849300
C 2.77239900 8.77949500 -2.05479900
C 2.78672000 8.21568000 -3.47311100
C 4.14642000 8.90774800 -1.40391100
H 2.37839600 9.78812900 -2.14488800
H 1.77547600 8.19453600 -3.88434000
H 3.38635900 8.88203600 -4.09731500
H 3.20714500 7.21475700 -3.55816500
H 4.04817400 9.27983700 -0.38295400
H 4.71920800 7.98164100 -1.37348800
H 4.73479700 9.63542600 -1.96737500
C -1.35775700 9.20930300 0.42355900
C -1.61083600 9.02974900 1.91772900
C -2.60485600 9.23354600 -0.45791700
H -0.91633800 10.19551300 0.31798400
H -0.66779500 9.05499600 2.46664800
H -2.21785100 9.86864600 2.26580600
H -2.13090000 8.11249800 2.18837300
H -2.32671000 9.43577200 -1.49407200
H -3.19836000 8.32078800 -0.44273000
H -3.24764600 10.05086700 -0.12275100
