34
Ni(CO)3[Py[a]ImNBut2] -2385.52021284
Ni 14.31936600 5.28044100 -5.27109300
C 12.86417700 4.31930700 -4.82225700
C 14.47131100 6.56799300 -4.02483500
C 14.17385000 6.13054500 -6.85191100
O 11.93564000 3.73825900 -4.49946100
O 14.44612200 7.42883200 -3.27339100
O 14.08487700 6.71170100 -7.83086200
C 15.81132300 3.93414200 -5.50826500
C 16.82734200 2.10760700 -6.48199700
C 17.65441200 2.59103800 -5.51354500
C 19.00055700 3.90513700 -3.46489500
H 19.40839800 4.51337300 -2.65628100
H 18.93263800 2.87834400 -3.09913400
C 17.63451100 4.47849900 -3.83901100
C 16.72063700 4.38671200 -2.61763600
H 16.66987100 3.35530900 -2.26057500
H 15.71120500 4.71551700 -2.85348800
C 17.82959200 5.91380900 -4.32605900
H 16.89358000 6.34365600 -4.67499900
H 18.54608700 5.93881400 -5.15060800
N 15.70534900 2.94734600 -6.45900200
N 17.02628800 3.67972400 -4.94767700
H 18.21869200 6.52984600 -3.51282500
H 17.11565000 5.01069500 -1.81335900
H 19.70894700 3.94770100 -4.29499800
H 18.61820400 2.23511600 -5.20678000
C 14.65669200 2.73334200 -7.33019900
H 13.83573300 3.42762800 -7.24178500
C 16.88235800 1.03294100 -7.40685100
H 17.75467700 0.39249800 -7.41366400
C 15.84145300 0.83819600 -8.25588100
H 15.86092300 0.02495900 -8.97009600
C 14.70854900 1.71039400 -8.21089600
H 13.87570300 1.56102900 -8.88430200
