27
Ni(CO)3[Py[b]ImNMe2] -2322.96150280
Ni 3.34085600 3.42446500 10.71303100
C 2.72592800 3.41015000 12.40371600
C 2.71438400 1.95558700 9.87606700
C 5.13821400 3.38183300 10.64618200
O 2.32340400 3.38837700 13.47171800
O 2.35692200 0.98124800 9.40021100
O 6.27771200 3.34202100 10.59055200
N 3.05537400 6.36715200 10.26580600
N 1.94628800 5.25870500 8.77024400
C 2.74305700 5.09790300 9.86390700
C 3.88810000 6.70105300 11.39941200
C 2.47182700 7.31075500 9.44738300
C 1.75567800 6.59677500 8.48162900
C 1.35763900 4.19075400 7.98691700
H 4.21033200 5.77418300 11.86597600
H 0.70663300 3.58074000 8.61132600
H 4.76437700 7.26538500 11.07346500
H 3.32378200 7.29290500 12.12315300
H 0.77596900 4.65028500 7.18996900
H 2.13794500 3.56453000 7.55690700
C 2.46128100 8.69330000 9.40445900
H 2.99485300 9.30366500 10.12233500
C 1.03945600 8.44711000 7.46288000
C 1.71665600 9.26019300 8.37323700
H 0.46156000 8.89600000 6.66235200
H 1.65734900 10.33585600 8.26974700
N 1.04630200 7.11236300 7.49985400
