27
Ni(CO)3[Py[c]ImNMe2] -2322.95374877
Ni 3.34470100 3.41117000 10.72923600
C 2.34316400 3.11767000 12.19487100
C 3.23541600 2.01561700 9.59401400
C 5.09221100 3.55558300 11.14286500
O 1.70563700 2.93115000 13.12250900
O 3.22120900 1.10107800 8.91075500
O 6.20587200 3.59517300 11.39064100
N 3.11329700 6.35751500 10.20289600
N 1.83345600 5.23643900 8.86755600
C 2.71439800 5.08472800 9.89328800
C 4.02792300 6.70797500 11.26795400
C 2.52289100 7.28620400 9.37410000
C 1.69718200 6.56739500 8.51148100
C 1.11117100 4.16324000 8.21913600
H 4.08198700 5.87428200 11.96220400
H 1.10387000 3.30326900 8.88214100
H 5.02490300 6.91762600 10.87482800
H 3.65337100 7.58768400 11.79290100
H 0.08414700 4.47942200 8.03315200
H 1.58279100 3.88956100 7.27311600
C 2.59939800 8.66690100 9.26883600
H 3.22656200 9.27483600 9.90729600
C 1.81597500 9.23858600 8.27282700
H 1.83016400 10.31458100 8.13403500
N 1.02117100 8.55945900 7.43921400
C 0.95504300 7.23690100 7.54870900
H 0.30461800 6.71451300 6.85454600
