24
Ni(CO)3[Im(CN)2NMe2] -2337.73258544
Ni 3.34235100 3.42564700 10.71624700
C 2.45749800 3.24312900 12.27441200
C 3.05165400 1.97275400 9.68787400
C 5.12299800 3.52971500 10.98676600
O 1.89632600 3.11447900 13.25835700
O 2.91010600 1.01699100 9.08124700
O 6.25090000 3.55821300 11.15238600
N 3.09036000 6.35819900 10.17576300
N 1.87031400 5.24206200 8.81053500
C 2.72956400 5.08440500 9.85566900
C 4.01193900 6.71171300 11.24251400
C 2.49181300 7.28220200 9.34662900
C 1.71260300 6.57027000 8.47607300
C 1.20392700 4.14831200 8.12271700
H 3.95054500 5.94493200 12.00972000
H 0.80542700 3.45772900 8.86172200
H 5.03250400 6.76433800 10.86131400
H 3.72919600 7.67774700 11.65806900
H 0.39144200 4.55044400 7.52031000
H 1.90877700 3.62423500 7.47787200
C 0.88244100 7.03566300 7.43834000
C 2.68086900 8.67386400 9.44564200
N 0.19742200 7.39907000 6.58411100
N 2.84887900 9.81104600 9.54350800
