26
Ni(CO)3[Im(NO2)2N(CF3)2] -3157.70499832
Ni 3.28410500 3.46036600 10.83148300
C 1.79671100 2.48814100 11.22534200
C 4.46454000 2.41790500 9.93530100
C 4.00241600 3.84393100 12.45439200
O 0.92570900 1.83479900 11.55286500
O 5.20946900 1.76156800 9.38137700
O 4.43376900 3.95949900 13.50049100
N 3.35816900 6.30621700 9.85881300
N 1.74526300 5.21919500 8.95212400
C 2.80933100 5.03455300 9.80080300
C 4.54388200 6.62727600 10.63714900
C 2.63290200 7.21940400 9.12101400
C 1.61139100 6.55082100 8.56128900
C 1.00798800 4.12553100 8.32649600
N 0.45272900 7.16377900 7.95162700
O 0.65045100 8.22819700 7.40694800
O -0.60504900 6.59424300 8.08269900
N 2.88872200 8.66555900 9.06633900
O 2.41148200 9.30818800 9.97008700
O 3.54546800 9.05483800 8.13817800
F 1.76516600 3.05339500 8.23267300
F -0.07914600 3.83121600 9.01138900
F 0.67279300 4.49940800 7.09751200
F 5.47812200 5.72209100 10.45205900
F 5.00447100 7.80461100 10.23321300
F 4.24968300 6.70921400 11.92184000
