26
Ni(CO)3[Im(NO2)2NMe2] -2562.25010380
Ni 3.33425900 3.42739800 10.73824000
C 2.00975400 2.82584400 11.80712400
C 3.72504200 2.25232800 9.42713200
C 4.84952700 3.57527100 11.70911600
O 1.18620300 2.44246200 12.49492400
O 4.01189600 1.49612800 8.62383200
O 5.81247200 3.56711900 12.32024200
N 3.21201600 6.38549600 10.08065400
N 1.76028000 5.25385900 8.95333800
C 2.73287800 5.11554400 9.90566000
C 4.20588000 6.74812700 11.08355500
C 2.57864500 7.26539000 9.24777000
C 1.66046800 6.55608200 8.54146800
C 0.97847800 4.14143400 8.42644100
H 4.16527200 5.99218000 11.86065900
H 1.32001300 3.25108000 8.94521300
H 5.19884400 6.78256900 10.63862100
H 3.96730800 7.72207700 11.50440000
H -0.07899900 4.31037000 8.61184100
H 1.14893700 4.03482100 7.35520300
N 0.76029800 7.01796800 7.51473300
O 1.17217000 7.88485000 6.77844400
O -0.33400600 6.49148500 7.47204500
N 2.87237600 8.67699900 9.19779300
O 1.93373800 9.42913100 9.07388800
O 4.04327700 8.98648300 9.29615700
