22
Ni(CO)3[ImF2ImNMe2] -2351.73284879
Ni 3.35008200 3.39309900 10.73526100
C 2.58928900 3.30595700 12.36429400
C 2.90702500 1.92536400 9.79507400
C 5.14707000 3.45353400 10.82604500
O 2.09894300 3.23818500 13.39272800
O 2.66977800 0.95275100 9.24478200
O 6.28769500 3.46513400 10.87146900
N 3.05550900 6.34129200 10.22189000
N 1.89983500 5.22185200 8.80240700
C 2.72615000 5.06497500 9.87469000
C 3.92137200 6.72208300 11.32056800
C 2.46042500 7.25198600 9.38312100
C 1.73735800 6.55220000 8.49410400
C 1.27212700 4.14443300 8.05971200
H 4.10929500 5.82774800 11.90828100
H 0.81065400 3.45036900 8.75803900
H 4.86555200 7.11979300 10.94576500
H 3.43084600 7.47374000 11.93899800
H 0.50889300 4.56561200 7.40839100
H 2.01076800 3.61703000 7.45659800
F 0.97856200 6.95449700 7.49564700
F 2.63233000 8.54962700 9.52878400
