22
Ni(CO)3[ImN(CF3)2] -2748.75401682
Ni 3.41240200 3.38588000 10.68158100
C 2.34003900 3.06263700 12.09296200
C 3.36692000 1.97001300 9.55441700
C 5.13218600 3.47614800 11.23943900
O 1.66736800 2.84913900 12.98777500
O 3.39617600 1.02398900 8.92021100
O 6.20991700 3.42499600 11.60537900
N 3.10329500 6.34884600 10.15923000
N 1.80628100 5.23963100 8.91107800
C 2.77031200 5.05273200 9.86621000
C 4.10437000 6.73001000 11.11567800
C 2.39166500 7.28490700 9.40908900
C 1.57100100 6.58308000 8.61938500
C 1.11545000 4.17426300 8.24031200
H 2.53102100 8.34463600 9.51389000
H 0.84747400 6.90486500 7.89385800
F 1.93158400 3.48424100 7.45611200
F 0.16224500 4.70759300 7.47203900
F 0.54207300 3.34804600 9.09651500
F 3.87567300 6.19616100 12.30190500
F 4.08077000 8.05902000 11.24392400
F 5.31833500 6.38149600 10.71303700
